taxonomy/R2-12470-3.glm
// R2-12470-3.glm

module powerflow
{
	solver_method NR;
}

object regulator:4240
{
	name R2-12-47-3_reg_1;
	from R2-12-47-3_node_832;
	to R2-12-47-3_meter_12;
	phases ABCN;
	configuration regulator_configuration:4241;
}


object regulator_configuration:4241
{
	name feeder_reg_cfg;
	Control MANUAL;//OUTPUT_VOLTAGE;
	band_center 7200.0;
	band_width 120;
	connect_type WYE_WYE;
	time_delay 30;
	raise_taps 16;
	lower_taps 16;
	regulation 0.10;
	tap_pos_A 0;
	tap_pos_B 0;
	tap_pos_C 0;
}


object fuse:4105
{
	name R2-12-47-3_fuse_1;
	phases ABCN;
	from R2-12-47-3_node_228;
	to R2-12-47-3_node_265;
	current_limit 65;
	status CLOSED;
}

object fuse:4106
{
	name R2-12-47-3_fuse_2;
	phases ABCN;
	from R2-12-47-3_node_232;
	to R2-12-47-3_node_272;
	current_limit 65;
	status CLOSED;
}

object fuse:4107
{
	name R2-12-47-3_fuse_3;
	phases ABCN;
	from R2-12-47-3_node_65;
	to R2-12-47-3_node_628;
	current_limit 10;
	status CLOSED;
}

object fuse:4108
{
	name R2-12-47-3_fuse_4;
	phases ACN;
	from R2-12-47-3_node_39;
	to R2-12-47-3_node_40;
	current_limit 85;
	status CLOSED;
}

object fuse:4109
{
	name R2-12-47-3_fuse_5;
	phases ABCN;
	from R2-12-47-3_node_66;
	to R2-12-47-3_node_535;
	current_limit 120;
	status CLOSED;
}

object fuse:4110
{
	name R2-12-47-3_fuse_6;
	phases ABCN;
	from R2-12-47-3_node_59;
	to R2-12-47-3_node_45;
	current_limit 30;
	status CLOSED;
}

object fuse:4111
{
	name R2-12-47-3_fuse_7;
	phases ABCN;
	from R2-12-47-3_node_61;
	to R2-12-47-3_node_63;
	current_limit 30;
	status CLOSED;
}

object fuse:4112
{
	name R2-12-47-3_fuse_8;
	phases CN;
	from R2-12-47-3_node_82;
	to R2-12-47-3_node_81;
	current_limit 30;
	status CLOSED;
}

object fuse:4113
{
	name R2-12-47-3_fuse_9;
	phases ABCN;
	from R2-12-47-3_node_71;
	to R2-12-47-3_node_72;
	current_limit 10;
	status CLOSED;
}

object fuse:4114
{
	name R2-12-47-3_fuse_10;
	phases CN;
	from R2-12-47-3_node_71;
	to R2-12-47-3_node_74;
	current_limit 10;
	status CLOSED;
}

object fuse:4115
{
	name R2-12-47-3_fuse_11;
	phases CN;
	from R2-12-47-3_node_98;
	to R2-12-47-3_node_99;
	current_limit 30;
	status CLOSED;
}

object fuse:4116
{
	name R2-12-47-3_fuse_12;
	phases ABCN;
	from R2-12-47-3_node_88;
	to R2-12-47-3_node_89;
	current_limit 30;
	status CLOSED;
}

object fuse:4117
{
	name R2-12-47-3_fuse_13;
	phases ABCN;
	from R2-12-47-3_node_90;
	to R2-12-47-3_node_91;
	current_limit 80;
	status CLOSED;
}

object fuse:4118
{
	name R2-12-47-3_fuse_14;
	phases AN;
	from R2-12-47-3_node_148;
	to R2-12-47-3_node_120;
	current_limit 30;
	status CLOSED;
}

object fuse:4119
{
	name R2-12-47-3_fuse_15;
	phases ABCN;
	from R2-12-47-3_node_146;
	to R2-12-47-3_node_114;
	current_limit 30;
	status CLOSED;
}

object fuse:4120
{
	name R2-12-47-3_fuse_16;
	phases ABCN;
	from R2-12-47-3_node_145;
	to R2-12-47-3_node_149;
	current_limit 10;
	status CLOSED;
}

object fuse:4121
{
	name R2-12-47-3_fuse_17;
	phases CN;
	from R2-12-47-3_node_171;
	to R2-12-47-3_node_170;
	current_limit 40;
	status CLOSED;
}

object fuse:4122
{
	name R2-12-47-3_fuse_18;
	phases ABCN;
	from R2-12-47-3_node_749;
	to R2-12-47-3_node_748;
	current_limit 80;
	status CLOSED;
}

object fuse:4123
{
	name R2-12-47-3_fuse_19;
	phases ABCN;
	from R2-12-47-3_node_757;
	to R2-12-47-3_node_776;
	current_limit 80;
	status CLOSED;
}

object fuse:4124
{
	name R2-12-47-3_fuse_20;
	phases BN;
	from R2-12-47-3_node_214;
	to R2-12-47-3_node_209;
	current_limit 30;
	status CLOSED;
}

object fuse:4125
{
	name R2-12-47-3_fuse_21;
	phases ABCN;
	from R2-12-47-3_node_215;
	to R2-12-47-3_node_243;
	current_limit 30;
	status CLOSED;
}

object fuse:4126
{
	name R2-12-47-3_fuse_22;
	phases ABCN;
	from R2-12-47-3_node_216;
	to R2-12-47-3_node_212;
	current_limit 40;
	status CLOSED;
}

object fuse:4127
{
	name R2-12-47-3_fuse_23;
	phases CN;
	from R2-12-47-3_node_70;
	to R2-12-47-3_node_222;
	current_limit 10;
	status CLOSED;
}

object fuse:4128
{
	name R2-12-47-3_fuse_24;
	phases ACN;
	from R2-12-47-3_node_68;
	to R2-12-47-3_node_236;
	current_limit 30;
	status CLOSED;
}

object fuse:4129
{
	name R2-12-47-3_fuse_25;
	phases CN;
	from R2-12-47-3_node_54;
	to R2-12-47-3_node_32;
	current_limit 80;
	status CLOSED;
}

object fuse:4130
{
	name R2-12-47-3_fuse_26;
	phases CN;
	from R2-12-47-3_node_90;
	to R2-12-47-3_node_242;
	current_limit 80;
	status CLOSED;
}

object fuse:4131
{
	name R2-12-47-3_fuse_27;
	phases CN;
	from R2-12-47-3_node_105;
	to R2-12-47-3_node_512;
	current_limit 40;
	status CLOSED;
}

object fuse:4132
{
	name R2-12-47-3_fuse_28;
	phases CN;
	from R2-12-47-3_node_107;
	to R2-12-47-3_node_253;
	current_limit 40;
	status CLOSED;
}

object fuse:4133
{
	name R2-12-47-3_fuse_29;
	phases ABCN;
	from R2-12-47-3_node_7;
	to R2-12-47-3_node_8;
	current_limit 80;
	status CLOSED;
}

object fuse:4134
{
	name R2-12-47-3_fuse_30;
	phases ABCN;
	from R2-12-47-3_node_294;
	to R2-12-47-3_node_297;
	current_limit 80;
	status CLOSED;
}

object fuse:4135
{
	name R2-12-47-3_fuse_31;
	phases ABCN;
	from R2-12-47-3_node_294;
	to R2-12-47-3_node_298;
	current_limit 80;
	status CLOSED;
}

object fuse:4136
{
	name R2-12-47-3_fuse_32;
	phases ABCN;
	from R2-12-47-3_node_467;
	to R2-12-47-3_node_469;
	current_limit 80;
	status CLOSED;
}

object fuse:4137
{
	name R2-12-47-3_fuse_33;
	phases AN;
	from R2-12-47-3_node_467;
	to R2-12-47-3_node_471;
	current_limit 25;
	status CLOSED;
}

object fuse:4138
{
	name R2-12-47-3_fuse_34;
	phases AN;
	from R2-12-47-3_node_473;
	to R2-12-47-3_node_475;
	current_limit 10;
	status CLOSED;
}

object fuse:4139
{
	name R2-12-47-3_fuse_35;
	phases ABCN;
	from R2-12-47-3_node_454;
	to R2-12-47-3_node_517;
	current_limit 80;
	status CLOSED;
}

object fuse:4140
{
	name R2-12-47-3_fuse_36;
	phases ABCN;
	from R2-12-47-3_node_632;
	to R2-12-47-3_node_811;
	current_limit 65;
	status CLOSED;
}

object fuse:4141
{
	name R2-12-47-3_fuse_37;
	phases ABCN;
	from R2-12-47-3_node_632;
	to R2-12-47-3_node_635;
	current_limit 65;
	status CLOSED;
}

object fuse:4142
{
	name R2-12-47-3_fuse_38;
	phases ABCN;
	from R2-12-47-3_node_645;
	to R2-12-47-3_node_807;
	current_limit 65;
	status CLOSED;
}

object fuse:4143
{
	name R2-12-47-3_fuse_39;
	phases ABCN;
	from R2-12-47-3_node_645;
	to R2-12-47-3_node_646;
	current_limit 65;
	status CLOSED;
}

object fuse:4144
{
	name R2-12-47-3_fuse_40;
	phases ABCN;
	from R2-12-47-3_node_650;
	to R2-12-47-3_node_815;
	current_limit 65;
	status CLOSED;
}

object fuse:4145
{
	name R2-12-47-3_fuse_41;
	phases ABCN;
	from R2-12-47-3_node_685;
	to R2-12-47-3_node_684;
	current_limit 80;
	status CLOSED;
}


object line_configuration:30
{
	conductor_A underground_line_conductor:2;
	conductor_B underground_line_conductor:2;
	conductor_C underground_line_conductor:2;
	conductor_N underground_line_conductor:2;
	spacing line_spacing:15;
}

object line_configuration:31
{
	conductor_B underground_line_conductor:2;
	conductor_N underground_line_conductor:2;
	spacing line_spacing:16;
}

object line_configuration:32
{
	conductor_A underground_line_conductor:2;
	conductor_N underground_line_conductor:2;
	spacing line_spacing:17;
}

object line_configuration:33
{
	conductor_C underground_line_conductor:2;
	conductor_N underground_line_conductor:2;
	spacing line_spacing:18;
}

object line_configuration:34
{
	conductor_C underground_line_conductor:2;
	conductor_N underground_line_conductor:2;
	spacing line_spacing:19;
}

object line_configuration:35
{
	conductor_C underground_line_conductor:3;
	conductor_N underground_line_conductor:3;
	spacing line_spacing:18;
}

object line_configuration:36
{
	conductor_A overhead_line_conductor:4;
	conductor_B overhead_line_conductor:4;
	conductor_C overhead_line_conductor:4;
	conductor_N overhead_line_conductor:4;
	spacing line_spacing:20;
}

object line_configuration:37
{
	conductor_A overhead_line_conductor:4;
	conductor_C overhead_line_conductor:4;
	conductor_N overhead_line_conductor:4;
	spacing line_spacing:21;
}

object line_configuration:38
{
	conductor_A overhead_line_conductor:5;
	conductor_C overhead_line_conductor:5;
	conductor_N overhead_line_conductor:5;
	spacing line_spacing:21;
}

object line_configuration:39
{
	conductor_C underground_line_conductor:6;
	conductor_N underground_line_conductor:6;
	spacing line_spacing:18;
}

object line_configuration:40
{
	conductor_A overhead_line_conductor:5;
	conductor_B overhead_line_conductor:5;
	conductor_C overhead_line_conductor:5;
	conductor_N overhead_line_conductor:5;
	spacing line_spacing:20;
}

object line_configuration:41
{
	conductor_A overhead_line_conductor:7;
	conductor_B overhead_line_conductor:7;
	conductor_C overhead_line_conductor:7;
	conductor_N overhead_line_conductor:7;
	spacing line_spacing:20;
}

object line_configuration:42
{
	conductor_C overhead_line_conductor:4;
	conductor_N overhead_line_conductor:4;
	spacing line_spacing:22;
}

object line_configuration:43
{
	conductor_A underground_line_conductor:8;
	conductor_B underground_line_conductor:8;
	conductor_C underground_line_conductor:8;
	conductor_N underground_line_conductor:8;
	spacing line_spacing:15;
}

object line_configuration:44
{
	conductor_C underground_line_conductor:8;
	conductor_N underground_line_conductor:8;
	spacing line_spacing:18;
}

object line_configuration:45
{
	conductor_A underground_line_conductor:6;
	conductor_C underground_line_conductor:6;
	conductor_N underground_line_conductor:6;
	spacing line_spacing:23;
}

object line_configuration:46
{
	conductor_A overhead_line_conductor:9;
	conductor_C overhead_line_conductor:9;
	conductor_N overhead_line_conductor:9;
	spacing line_spacing:21;
}

object line_configuration:47
{
	conductor_A underground_line_conductor:6;
	conductor_N underground_line_conductor:6;
	spacing line_spacing:17;
}

object line_configuration:48
{
	conductor_A underground_line_conductor:10;
	conductor_B underground_line_conductor:10;
	conductor_C underground_line_conductor:10;
	conductor_N underground_line_conductor:10;
	spacing line_spacing:15;
}

object line_configuration:49
{
	conductor_A underground_line_conductor:3;
	conductor_B underground_line_conductor:3;
	conductor_C underground_line_conductor:3;
	conductor_N underground_line_conductor:3;
	spacing line_spacing:20;
}

object line_configuration:50
{
	conductor_A overhead_line_conductor:9;
	conductor_B overhead_line_conductor:9;
	conductor_C overhead_line_conductor:9;
	conductor_N overhead_line_conductor:9;
	spacing line_spacing:20;
}

object line_configuration:51
{
	conductor_A overhead_line_conductor:5;
	conductor_B overhead_line_conductor:5;
	conductor_C overhead_line_conductor:5;
	conductor_N overhead_line_conductor:5;
	spacing line_spacing:20;
}

object line_configuration:52
{
	conductor_B overhead_line_conductor:9;
	conductor_C overhead_line_conductor:9;
	conductor_N overhead_line_conductor:9;
	spacing line_spacing:24;
}

object line_configuration:53
{
	conductor_A overhead_line_conductor:5;
	conductor_N overhead_line_conductor:5;
	spacing line_spacing:25;
}

object line_configuration:54
{
	conductor_A overhead_line_conductor:4;
	conductor_N overhead_line_conductor:4;
	spacing line_spacing:25;
}

object line_configuration:55
{
	conductor_A underground_line_conductor:3;
	conductor_B underground_line_conductor:3;
	conductor_C underground_line_conductor:3;
	conductor_N underground_line_conductor:3;
	spacing line_spacing:15;
}

object line_configuration:56
{
	conductor_A underground_line_conductor:3;
	conductor_N underground_line_conductor:3;
	spacing line_spacing:17;
}

object line_configuration:57
{
	conductor_B overhead_line_conductor:5;
	conductor_N overhead_line_conductor:5;
	spacing line_spacing:26;
}

object line_configuration:58
{
	conductor_A overhead_line_conductor:11;
	conductor_B overhead_line_conductor:11;
	conductor_C overhead_line_conductor:11;
	conductor_N overhead_line_conductor:11;
	spacing line_spacing:20;
}

object line_configuration:59
{
	conductor_A overhead_line_conductor:12;
	conductor_B overhead_line_conductor:12;
	conductor_C overhead_line_conductor:12;
	conductor_N overhead_line_conductor:12;
	spacing line_spacing:20;
}

object line_configuration:60
{
	conductor_A overhead_line_conductor:13;
	conductor_B overhead_line_conductor:13;
	conductor_C overhead_line_conductor:13;
	conductor_N overhead_line_conductor:13;
	spacing line_spacing:20;
}

object line_configuration:61
{
	conductor_A underground_line_conductor:2;
	conductor_C underground_line_conductor:2;
	conductor_N underground_line_conductor:2;
	spacing line_spacing:23;
}

object line_configuration:62
{
	conductor_C overhead_line_conductor:11;
	conductor_N overhead_line_conductor:11;
	spacing line_spacing:22;
}

object line_configuration:63
{
	conductor_B underground_line_conductor:2;
	conductor_C underground_line_conductor:2;
	conductor_N underground_line_conductor:2;
	spacing line_spacing:27;
}

object line_configuration:64
{
	conductor_A underground_line_conductor:2;
	conductor_B underground_line_conductor:2;
	conductor_N underground_line_conductor:2;
	spacing line_spacing:28;
}

object line_configuration:65
{
	conductor_A overhead_line_conductor:4;
	conductor_N overhead_line_conductor:4;
	spacing line_spacing:29;
}

object line_configuration:66
{
	conductor_C underground_line_conductor:10;
	conductor_N underground_line_conductor:10;
	spacing line_spacing:18;
}


object line_spacing:15
{
	distance_AB 3.0 in;
	distance_BC 3.0 in;
	distance_AC 3.0 in;
	distance_AN 2.0 in;
	distance_BN 2.0 in;
	distance_CN 2.0 in;
}

object line_spacing:16
{
	distance_BN 2.0 in;
}

object line_spacing:17
{
	distance_AN 2.0 in;
}

object line_spacing:18
{
	distance_CN 2.0 in;
}

object line_spacing:19
{
	distance_CN 2.0 in;
}

object line_spacing:20
{
	distance_AB 48.0 in;
	distance_BC 48.0 in;
	distance_AC 48.0 in;
	distance_AN 36.0 in;
	distance_BN 36.0 in;
	distance_CN 36.0 in;
}

object line_spacing:21
{
	distance_AC 48.0 in;
	distance_AN 36.0 in;
	distance_CN 36.0 in;
}

object line_spacing:22
{
	distance_CN 36.0 in;
}

object line_spacing:23
{
	distance_AC 3.0 in;
	distance_AN 2.0 in;
	distance_CN 2.0 in;
}

object line_spacing:24
{
	distance_BC 48.0 in;
	distance_BN 36.0 in;
	distance_CN 36.0 in;
}

object line_spacing:25
{
	distance_AN 36.0 in;
}

object line_spacing:26
{
	distance_BN 36.0 in;
}

object line_spacing:27
{
	distance_BC 3.0 in;
	distance_BN 2.0 in;
	distance_CN 2.0 in;
}

object line_spacing:28
{
	distance_AB 3.0 in;
	distance_AN 2.0 in;
	distance_BN 2.0 in;
}

object line_spacing:29
{
	distance_AN 48.0 in;
}


object load:898
{
	name R2-12-47-3_load_1;
	parent R2-12-47-3_meter_1;
	phases ABCN;
	voltage_A 7200+0.0j;
	voltage_B -3600-6235j;
	voltage_C -3600+6235j;
	constant_power_A 56563.6946+28638.7233j;
	constant_power_B 71482.1732+35330.0372j;
	constant_power_C 58895.8384+28580.6784j;
	nominal_voltage 7200;
	load_class C;
}

object load:899
{
	name R2-12-47-3_load_2;
	parent R2-12-47-3_meter_2;
	phases ABCN;
	voltage_A 7200+0.0j;
	voltage_B -3600-6235j;
	voltage_C -3600+6235j;
	constant_power_A 2530.1801+1281.0537j;
	constant_power_B 3197.5064+1580.3663j;
	constant_power_C 2634.5005+1278.4572j;
	nominal_voltage 7200;
	load_class A;
}

object load:900
{
	name R2-12-47-3_load_3;
	parent R2-12-47-3_meter_3;
	phases ABCN;
	voltage_A 7200+0.0j;
	voltage_B -3600-6235j;
	voltage_C -3600+6235j;
	constant_power_A 5060.3602+2562.1073j;
	constant_power_B 6395.0127+3160.7326j;
	constant_power_C 5269.0009+2556.9145j;
	nominal_voltage 7200;
	load_class A;
}

object load:901
{
	name R2-12-47-3_load_4;
	parent R2-12-47-3_meter_4;
	phases ABCN;
	voltage_A 7200+0.0j;
	voltage_B -3600-6235j;
	voltage_C -3600+6235j;
	constant_power_A 5060.3602+2562.1073j;
	constant_power_B 6395.0127+3160.7326j;
	constant_power_C 5269.0009+2556.9145j;
	nominal_voltage 7200;
	load_class A;
}

object load:902
{
	name R2-12-47-3_load_5;
	parent R2-12-47-3_meter_5;
	phases ABCN;
	voltage_A 7200+0.0j;
	voltage_B -3600-6235j;
	voltage_C -3600+6235j;
	constant_power_A 25301.8012+12810.5367j;
	constant_power_B 31975.0636+15803.6632j;
	constant_power_C 26345.0046+12784.5723j;
	nominal_voltage 7200;
	load_class C;
}

object load:903
{
	name R2-12-47-3_load_6;
	parent R2-12-47-3_meter_6;
	phases ABCN;
	voltage_A 7200+0.0j;
	voltage_B -3600-6235j;
	voltage_C -3600+6235j;
	constant_power_A 5060.3602+2562.1073j;
	constant_power_B 6395.0127+3160.7326j;
	constant_power_C 5269.0009+2556.9145j;
	nominal_voltage 7200;
	load_class A;
}

object load:904
{
	name R2-12-47-3_load_7;
	parent R2-12-47-3_meter_7;
	phases ABCN;
	voltage_A 7200+0.0j;
	voltage_B -3600-6235j;
	voltage_C -3600+6235j;
	constant_power_A 8433.9337+4270.1789j;
	constant_power_B 0+0j;
	constant_power_C 0+0j;
	nominal_voltage 7200;
	load_class C;
}

object load:905
{
	name R2-12-47-3_load_8;
	parent R2-12-47-3_meter_8;
	phases ABCN;
	voltage_A 7200+0.0j;
	voltage_B -3600-6235j;
	voltage_C -3600+6235j;
	constant_power_A 33735.7349+17080.7155j;
	constant_power_B 42633.4182+21071.5509j;
	constant_power_C 35126.6728+17046.0964j;
	nominal_voltage 7200;
	load_class A;
}

object load:906
{
	name R2-12-47-3_load_9;
	parent R2-12-47-3_meter_9;
	phases AN;
	voltage_A 7200+0.0j;
	constant_power_A 8433.9337+4270.1789j;
	nominal_voltage 7200;
	load_class C;
}

object load:907
{
	name R2-12-47-3_load_10;
	parent R2-12-47-3_meter_10;
	phases AN;
	voltage_A 7200+0.0j;
	constant_power_A 3373.5735+1708.0716j;
	nominal_voltage 7200;
	load_class C;
}

object load:908
{
	name R2-12-47-3_load_11;
	parent R2-12-47-3_meter_11;
	phases ABCN;
	voltage_A 7200+0.0j;
	voltage_B -3600-6235j;
	voltage_C -3600+6235j;
	constant_power_A 33735.7349+17080.7155j;
	constant_power_B 42633.4182+21071.5509j;
	constant_power_C 35126.6728+17046.0964j;
	nominal_voltage 7200;
	load_class C;
}


object meter:2364
{
	name R2-12-47-3_meter_1;
	phases ABCN;
	voltage_A 7200+0.0j;
	voltage_B -3600-6235j;
	voltage_C -3600+6235j;
	nominal_voltage 7200;
}

object meter:2365
{
	name R2-12-47-3_meter_2;
	phases ABCN;
	voltage_A 7200+0.0j;
	voltage_B -3600-6235j;
	voltage_C -3600+6235j;
	nominal_voltage 7200;
}

object meter:2366
{
	name R2-12-47-3_meter_3;
	phases ABCN;
	voltage_A 7200+0.0j;
	voltage_B -3600-6235j;
	voltage_C -3600+6235j;
	nominal_voltage 7200;
}

object meter:2367
{
	name R2-12-47-3_meter_4;
	phases ABCN;
	voltage_A 7200+0.0j;
	voltage_B -3600-6235j;
	voltage_C -3600+6235j;
	nominal_voltage 7200;
}

object meter:2368
{
	name R2-12-47-3_meter_5;
	phases ABCN;
	voltage_A 7200+0.0j;
	voltage_B -3600-6235j;
	voltage_C -3600+6235j;
	nominal_voltage 7200;
}

object meter:2369
{
	name R2-12-47-3_meter_6;
	phases ABCN;
	voltage_A 7200+0.0j;
	voltage_B -3600-6235j;
	voltage_C -3600+6235j;
	nominal_voltage 7200;
}

object meter:2370
{
	name R2-12-47-3_meter_7;
	phases ABCN;
	voltage_A 7200+0.0j;
	voltage_B -3600-6235j;
	voltage_C -3600+6235j;
	nominal_voltage 7200;
}

object meter:2371
{
	name R2-12-47-3_meter_8;
	phases ABCN;
	voltage_A 7200+0.0j;
	voltage_B -3600-6235j;
	voltage_C -3600+6235j;
	nominal_voltage 7200;
}

object meter:2372
{
	name R2-12-47-3_meter_9;
	phases AN;
	voltage_A 7200+0.0j;
	nominal_voltage 7200;
}

object meter:2373
{
	name R2-12-47-3_meter_10;
	phases AN;
	voltage_A 7200+0.0j;
	nominal_voltage 7200;
}

object meter:2374
{
	name R2-12-47-3_meter_11;
	phases ABCN;
	voltage_A 7200+0.0j;
	voltage_B -3600-6235j;
	voltage_C -3600+6235j;
	nominal_voltage 7200;
}

// Meter at feeder
object meter:4239
{
	name R2-12-47-3_meter_12;
	phases ABCN;
	nominal_voltage 7200; 
	voltage_A 7200+0.0j;
	voltage_B -3600-6235j;
	voltage_C -3600+6235j;
}


object node:67
{
	name R2-12-47-3_node_1;
	phases AN;
	voltage_A 7200+0.0j;
	nominal_voltage 7200;
}

object node:68
{
	name R2-12-47-3_node_2;
	phases AN;
	voltage_A 7200+0.0j;
	nominal_voltage 7200;
}

object node:69
{
	name R2-12-47-3_node_3;
	phases ABCN;
	voltage_A 7200+0.0j;
	voltage_B -3600-6235j;
	voltage_C -3600+6235j;
	nominal_voltage 7200;
}

object node:70
{
	name R2-12-47-3_node_4;
	phases ABCN;
	voltage_A 7200+0.0j;
	voltage_B -3600-6235j;
	voltage_C -3600+6235j;
	nominal_voltage 7200;
}

object node:71
{
	name R2-12-47-3_node_5;
	phases ABCN;
	voltage_A 7200+0.0j;
	voltage_B -3600-6235j;
	voltage_C -3600+6235j;
	nominal_voltage 7200;
}

object node:72
{
	name R2-12-47-3_node_6;
	phases ABCN;
	voltage_A 7200+0.0j;
	voltage_B -3600-6235j;
	voltage_C -3600+6235j;
	nominal_voltage 7200;
}

object node:73
{
	name R2-12-47-3_node_7;
	phases ABCN;
	voltage_A 7200+0.0j;
	voltage_B -3600-6235j;
	voltage_C -3600+6235j;
	nominal_voltage 7200;
}

object node:74
{
	name R2-12-47-3_node_8;
	phases ABCN;
	voltage_A 7200+0.0j;
	voltage_B -3600-6235j;
	voltage_C -3600+6235j;
	nominal_voltage 7200;
}

object node:75
{
	name R2-12-47-3_node_9;
	phases ABCN;
	voltage_A 7200+0.0j;
	voltage_B -3600-6235j;
	voltage_C -3600+6235j;
	nominal_voltage 7200;
}

object node:76
{
	name R2-12-47-3_node_10;
	phases ABCN;
	voltage_A 7200+0.0j;
	voltage_B -3600-6235j;
	voltage_C -3600+6235j;
	nominal_voltage 7200;
}

object node:77
{
	name R2-12-47-3_node_11;
	phases ABCN;
	voltage_A 7200+0.0j;
	voltage_B -3600-6235j;
	voltage_C -3600+6235j;
	nominal_voltage 7200;
}

object node:78
{
	name R2-12-47-3_node_12;
	phases ABCN;
	voltage_A 7200+0.0j;
	voltage_B -3600-6235j;
	voltage_C -3600+6235j;
	nominal_voltage 7200;
}

object node:79
{
	name R2-12-47-3_node_13;
	phases ABCN;
	voltage_A 7200+0.0j;
	voltage_B -3600-6235j;
	voltage_C -3600+6235j;
	nominal_voltage 7200;
}

object node:80
{
	name R2-12-47-3_node_14;
	phases ABCN;
	voltage_A 7200+0.0j;
	voltage_B -3600-6235j;
	voltage_C -3600+6235j;
	nominal_voltage 7200;
}

object node:81
{
	name R2-12-47-3_node_15;
	phases BN;
	voltage_B -3600-6235j;
	nominal_voltage 7200;
}

object node:82
{
	name R2-12-47-3_node_16;
	phases ABCN;
	voltage_A 7200+0.0j;
	voltage_B -3600-6235j;
	voltage_C -3600+6235j;
	nominal_voltage 7200;
}

object node:83
{
	name R2-12-47-3_node_17;
	phases ABCN;
	voltage_A 7200+0.0j;
	voltage_B -3600-6235j;
	voltage_C -3600+6235j;
	nominal_voltage 7200;
}

object node:84
{
	name R2-12-47-3_node_18;
	phases ABCN;
	voltage_A 7200+0.0j;
	voltage_B -3600-6235j;
	voltage_C -3600+6235j;
	nominal_voltage 7200;
}

object node:85
{
	name R2-12-47-3_node_19;
	phases ABCN;
	voltage_A 7200+0.0j;
	voltage_B -3600-6235j;
	voltage_C -3600+6235j;
	nominal_voltage 7200;
}

object node:86
{
	name R2-12-47-3_node_20;
	phases ABCN;
	voltage_A 7200+0.0j;
	voltage_B -3600-6235j;
	voltage_C -3600+6235j;
	nominal_voltage 7200;
}

object node:87
{
	name R2-12-47-3_node_21;
	phases ABCN;
	voltage_A 7200+0.0j;
	voltage_B -3600-6235j;
	voltage_C -3600+6235j;
	nominal_voltage 7200;
}

object node:88
{
	name R2-12-47-3_node_22;
	phases AN;
	voltage_A 7200+0.0j;
	nominal_voltage 7200;
}

object node:89
{
	name R2-12-47-3_node_23;
	phases CN;
	voltage_C -3600+6235j;
	nominal_voltage 7200;
}

object node:90
{
	name R2-12-47-3_node_24;
	phases BN;
	voltage_B -3600-6235j;
	nominal_voltage 7200;
}

object node:91
{
	name R2-12-47-3_node_25;
	phases CN;
	voltage_C -3600+6235j;
	nominal_voltage 7200;
}

object node:92
{
	name R2-12-47-3_node_26;
	phases BN;
	voltage_B -3600-6235j;
	nominal_voltage 7200;
}

object node:93
{
	name R2-12-47-3_node_27;
	phases ABCN;
	voltage_A 7200+0.0j;
	voltage_B -3600-6235j;
	voltage_C -3600+6235j;
	nominal_voltage 7200;
}

object node:94
{
	name R2-12-47-3_node_28;
	phases ABCN;
	voltage_A 7200+0.0j;
	voltage_B -3600-6235j;
	voltage_C -3600+6235j;
	nominal_voltage 7200;
}

object node:95
{
	name R2-12-47-3_node_29;
	phases CN;
	voltage_C -3600+6235j;
	nominal_voltage 7200;
}

object node:96
{
	name R2-12-47-3_node_30;
	phases CN;
	voltage_C -3600+6235j;
	nominal_voltage 7200;
}

object node:97
{
	name R2-12-47-3_node_31;
	phases AN;
	voltage_A 7200+0.0j;
	nominal_voltage 7200;
}

object node:98
{
	name R2-12-47-3_node_32;
	phases CN;
	voltage_C -3600+6235j;
	nominal_voltage 7200;
}

object node:99
{
	name R2-12-47-3_node_33;
	phases AN;
	voltage_A 7200+0.0j;
	nominal_voltage 7200;
}

object node:100
{
	name R2-12-47-3_node_34;
	phases AN;
	voltage_A 7200+0.0j;
	nominal_voltage 7200;
}

object node:101
{
	name R2-12-47-3_node_35;
	phases AN;
	voltage_A 7200+0.0j;
	nominal_voltage 7200;
}

object node:102
{
	name R2-12-47-3_node_36;
	phases AN;
	voltage_A 7200+0.0j;
	nominal_voltage 7200;
}

object node:103
{
	name R2-12-47-3_node_37;
	phases CN;
	voltage_C -3600+6235j;
	nominal_voltage 7200;
}

object node:104
{
	name R2-12-47-3_node_38;
	phases CN;
	voltage_C -3600+6235j;
	nominal_voltage 7200;
}

object node:105
{
	name R2-12-47-3_node_39;
	phases ACN;
	voltage_A 7200+0.0j;
	voltage_C -3600+6235j;
	nominal_voltage 7200;
}

object node:106
{
	name R2-12-47-3_node_40;
	phases ACN;
	voltage_A 7200+0.0j;
	voltage_C -3600+6235j;
	nominal_voltage 7200;
}

object node:107
{
	name R2-12-47-3_node_41;
	phases ACN;
	voltage_A 7200+0.0j;
	voltage_C -3600+6235j;
	nominal_voltage 7200;
}

object node:108
{
	name R2-12-47-3_node_42;
	phases ACN;
	voltage_A 7200+0.0j;
	voltage_C -3600+6235j;
	nominal_voltage 7200;
}

object node:109
{
	name R2-12-47-3_node_43;
	phases ACN;
	voltage_A 7200+0.0j;
	voltage_C -3600+6235j;
	nominal_voltage 7200;
}

object node:110
{
	name R2-12-47-3_node_44;
	phases ABCN;
	voltage_A 7200+0.0j;
	voltage_B -3600-6235j;
	voltage_C -3600+6235j;
	nominal_voltage 7200;
}

object node:111
{
	name R2-12-47-3_node_45;
	phases ABCN;
	voltage_A 7200+0.0j;
	voltage_B -3600-6235j;
	voltage_C -3600+6235j;
	nominal_voltage 7200;
}

object node:112
{
	name R2-12-47-3_node_46;
	phases ABCN;
	voltage_A 7200+0.0j;
	voltage_B -3600-6235j;
	voltage_C -3600+6235j;
	nominal_voltage 7200;
}

object node:113
{
	name R2-12-47-3_node_47;
	phases ABCN;
	voltage_A 7200+0.0j;
	voltage_B -3600-6235j;
	voltage_C -3600+6235j;
	nominal_voltage 7200;
}

object node:114
{
	name R2-12-47-3_node_48;
	phases ABCN;
	voltage_A 7200+0.0j;
	voltage_B -3600-6235j;
	voltage_C -3600+6235j;
	nominal_voltage 7200;
}

object node:115
{
	name R2-12-47-3_node_49;
	phases ABCN;
	voltage_A 7200+0.0j;
	voltage_B -3600-6235j;
	voltage_C -3600+6235j;
	nominal_voltage 7200;
}

object node:116
{
	name R2-12-47-3_node_50;
	phases ABCN;
	voltage_A 7200+0.0j;
	voltage_B -3600-6235j;
	voltage_C -3600+6235j;
	nominal_voltage 7200;
}

object node:117
{
	name R2-12-47-3_node_51;
	phases AN;
	voltage_A 7200+0.0j;
	nominal_voltage 7200;
}

object node:118
{
	name R2-12-47-3_node_52;
	phases ABCN;
	voltage_A 7200+0.0j;
	voltage_B -3600-6235j;
	voltage_C -3600+6235j;
	nominal_voltage 7200;
}

object node:119
{
	name R2-12-47-3_node_53;
	phases ABCN;
	voltage_A 7200+0.0j;
	voltage_B -3600-6235j;
	voltage_C -3600+6235j;
	nominal_voltage 7200;
}

object node:120
{
	name R2-12-47-3_node_54;
	phases ABCN;
	voltage_A 7200+0.0j;
	voltage_B -3600-6235j;
	voltage_C -3600+6235j;
	nominal_voltage 7200;
}

object node:121
{
	name R2-12-47-3_node_55;
	phases ABCN;
	voltage_A 7200+0.0j;
	voltage_B -3600-6235j;
	voltage_C -3600+6235j;
	nominal_voltage 7200;
}

object node:122
{
	name R2-12-47-3_node_56;
	phases ABCN;
	voltage_A 7200+0.0j;
	voltage_B -3600-6235j;
	voltage_C -3600+6235j;
	nominal_voltage 7200;
}

object node:123
{
	name R2-12-47-3_node_57;
	phases ABCN;
	voltage_A 7200+0.0j;
	voltage_B -3600-6235j;
	voltage_C -3600+6235j;
	nominal_voltage 7200;
}

object node:124
{
	name R2-12-47-3_node_58;
	phases ABCN;
	voltage_A 7200+0.0j;
	voltage_B -3600-6235j;
	voltage_C -3600+6235j;
	nominal_voltage 7200;
}

object node:125
{
	name R2-12-47-3_node_59;
	phases ABCN;
	voltage_A 7200+0.0j;
	voltage_B -3600-6235j;
	voltage_C -3600+6235j;
	nominal_voltage 7200;
}

object node:126
{
	name R2-12-47-3_node_60;
	phases ABCN;
	voltage_A 7200+0.0j;
	voltage_B -3600-6235j;
	voltage_C -3600+6235j;
	nominal_voltage 7200;
}

object node:127
{
	name R2-12-47-3_node_61;
	phases ABCN;
	voltage_A 7200+0.0j;
	voltage_B -3600-6235j;
	voltage_C -3600+6235j;
	nominal_voltage 7200;
}

object node:128
{
	name R2-12-47-3_node_62;
	phases CN;
	voltage_C -3600+6235j;
	nominal_voltage 7200;
}

object node:129
{
	name R2-12-47-3_node_63;
	phases ABCN;
	voltage_A 7200+0.0j;
	voltage_B -3600-6235j;
	voltage_C -3600+6235j;
	nominal_voltage 7200;
}

object node:130
{
	name R2-12-47-3_node_64;
	phases CN;
	voltage_C -3600+6235j;
	nominal_voltage 7200;
}

object node:131
{
	name R2-12-47-3_node_65;
	phases ABCN;
	voltage_A 7200+0.0j;
	voltage_B -3600-6235j;
	voltage_C -3600+6235j;
	nominal_voltage 7200;
}

object node:132
{
	name R2-12-47-3_node_66;
	phases ABCN;
	voltage_A 7200+0.0j;
	voltage_B -3600-6235j;
	voltage_C -3600+6235j;
	nominal_voltage 7200;
}

object node:133
{
	name R2-12-47-3_node_67;
	phases CN;
	voltage_C -3600+6235j;
	nominal_voltage 7200;
}

object node:134
{
	name R2-12-47-3_node_68;
	phases ABCN;
	voltage_A 7200+0.0j;
	voltage_B -3600-6235j;
	voltage_C -3600+6235j;
	nominal_voltage 7200;
}

object node:135
{
	name R2-12-47-3_node_69;
	phases ABCN;
	voltage_A 7200+0.0j;
	voltage_B -3600-6235j;
	voltage_C -3600+6235j;
	nominal_voltage 7200;
}

object node:136
{
	name R2-12-47-3_node_70;
	phases ABCN;
	voltage_A 7200+0.0j;
	voltage_B -3600-6235j;
	voltage_C -3600+6235j;
	nominal_voltage 7200;
}

object node:137
{
	name R2-12-47-3_node_71;
	phases ABCN;
	voltage_A 7200+0.0j;
	voltage_B -3600-6235j;
	voltage_C -3600+6235j;
	nominal_voltage 7200;
}

object node:138
{
	name R2-12-47-3_node_72;
	phases ABCN;
	voltage_A 7200+0.0j;
	voltage_B -3600-6235j;
	voltage_C -3600+6235j;
	nominal_voltage 7200;
}

object node:139
{
	name R2-12-47-3_node_73;
	phases ABCN;
	voltage_A 7200+0.0j;
	voltage_B -3600-6235j;
	voltage_C -3600+6235j;
	nominal_voltage 7200;
}

object node:140
{
	name R2-12-47-3_node_74;
	phases CN;
	voltage_C -3600+6235j;
	nominal_voltage 7200;
}

object node:141
{
	name R2-12-47-3_node_75;
	phases CN;
	voltage_C -3600+6235j;
	nominal_voltage 7200;
}

object node:142
{
	name R2-12-47-3_node_76;
	phases ABCN;
	voltage_A 7200+0.0j;
	voltage_B -3600-6235j;
	voltage_C -3600+6235j;
	nominal_voltage 7200;
}

object node:143
{
	name R2-12-47-3_node_77;
	phases ABCN;
	voltage_A 7200+0.0j;
	voltage_B -3600-6235j;
	voltage_C -3600+6235j;
	nominal_voltage 7200;
}

object node:144
{
	name R2-12-47-3_node_78;
	phases ABCN;
	voltage_A 7200+0.0j;
	voltage_B -3600-6235j;
	voltage_C -3600+6235j;
	nominal_voltage 7200;
}

object node:145
{
	name R2-12-47-3_node_79;
	phases CN;
	voltage_C -3600+6235j;
	nominal_voltage 7200;
}

object node:146
{
	name R2-12-47-3_node_80;
	phases CN;
	voltage_C -3600+6235j;
	nominal_voltage 7200;
}

object node:147
{
	name R2-12-47-3_node_81;
	phases CN;
	voltage_C -3600+6235j;
	nominal_voltage 7200;
}

object node:148
{
	name R2-12-47-3_node_82;
	phases ABCN;
	voltage_A 7200+0.0j;
	voltage_B -3600-6235j;
	voltage_C -3600+6235j;
	nominal_voltage 7200;
}

object node:149
{
	name R2-12-47-3_node_83;
	phases ABCN;
	voltage_A 7200+0.0j;
	voltage_B -3600-6235j;
	voltage_C -3600+6235j;
	nominal_voltage 7200;
}

object node:150
{
	name R2-12-47-3_node_84;
	phases ABCN;
	voltage_A 7200+0.0j;
	voltage_B -3600-6235j;
	voltage_C -3600+6235j;
	nominal_voltage 7200;
}

object node:151
{
	name R2-12-47-3_node_85;
	phases ABCN;
	voltage_A 7200+0.0j;
	voltage_B -3600-6235j;
	voltage_C -3600+6235j;
	nominal_voltage 7200;
}

object node:152
{
	name R2-12-47-3_node_86;
	phases ACN;
	voltage_A 7200+0.0j;
	voltage_C -3600+6235j;
	nominal_voltage 7200;
}

object node:153
{
	name R2-12-47-3_node_87;
	phases ABCN;
	voltage_A 7200+0.0j;
	voltage_B -3600-6235j;
	voltage_C -3600+6235j;
	nominal_voltage 7200;
}

object node:154
{
	name R2-12-47-3_node_88;
	phases ABCN;
	voltage_A 7200+0.0j;
	voltage_B -3600-6235j;
	voltage_C -3600+6235j;
	nominal_voltage 7200;
}

object node:155
{
	name R2-12-47-3_node_89;
	phases ABCN;
	voltage_A 7200+0.0j;
	voltage_B -3600-6235j;
	voltage_C -3600+6235j;
	nominal_voltage 7200;
}

object node:156
{
	name R2-12-47-3_node_90;
	phases ABCN;
	voltage_A 7200+0.0j;
	voltage_B -3600-6235j;
	voltage_C -3600+6235j;
	nominal_voltage 7200;
}

object node:157
{
	name R2-12-47-3_node_91;
	phases ABCN;
	voltage_A 7200+0.0j;
	voltage_B -3600-6235j;
	voltage_C -3600+6235j;
	nominal_voltage 7200;
}

object node:158
{
	name R2-12-47-3_node_92;
	phases ABCN;
	voltage_A 7200+0.0j;
	voltage_B -3600-6235j;
	voltage_C -3600+6235j;
	nominal_voltage 7200;
}

object node:159
{
	name R2-12-47-3_node_93;
	phases ABCN;
	voltage_A 7200+0.0j;
	voltage_B -3600-6235j;
	voltage_C -3600+6235j;
	nominal_voltage 7200;
}

object node:160
{
	name R2-12-47-3_node_94;
	phases ABCN;
	voltage_A 7200+0.0j;
	voltage_B -3600-6235j;
	voltage_C -3600+6235j;
	nominal_voltage 7200;
}

object node:161
{
	name R2-12-47-3_node_95;
	phases CN;
	voltage_C -3600+6235j;
	nominal_voltage 7200;
}

object node:162
{
	name R2-12-47-3_node_96;
	phases CN;
	voltage_C -3600+6235j;
	nominal_voltage 7200;
}

object node:163
{
	name R2-12-47-3_node_97;
	phases CN;
	voltage_C -3600+6235j;
	nominal_voltage 7200;
}

object node:164
{
	name R2-12-47-3_node_98;
	phases CN;
	voltage_C -3600+6235j;
	nominal_voltage 7200;
}

object node:165
{
	name R2-12-47-3_node_99;
	phases CN;
	voltage_C -3600+6235j;
	nominal_voltage 7200;
}

object node:166
{
	name R2-12-47-3_node_100;
	phases CN;
	voltage_C -3600+6235j;
	nominal_voltage 7200;
}

object node:167
{
	name R2-12-47-3_node_101;
	phases CN;
	voltage_C -3600+6235j;
	nominal_voltage 7200;
}

object node:168
{
	name R2-12-47-3_node_102;
	phases CN;
	voltage_C -3600+6235j;
	nominal_voltage 7200;
}

object node:169
{
	name R2-12-47-3_node_103;
	phases ABCN;
	voltage_A 7200+0.0j;
	voltage_B -3600-6235j;
	voltage_C -3600+6235j;
	nominal_voltage 7200;
}

object node:170
{
	name R2-12-47-3_node_104;
	phases ABCN;
	voltage_A 7200+0.0j;
	voltage_B -3600-6235j;
	voltage_C -3600+6235j;
	nominal_voltage 7200;
}

object node:171
{
	name R2-12-47-3_node_105;
	phases ABCN;
	voltage_A 7200+0.0j;
	voltage_B -3600-6235j;
	voltage_C -3600+6235j;
	nominal_voltage 7200;
}

object node:172
{
	name R2-12-47-3_node_106;
	phases ABCN;
	voltage_A 7200+0.0j;
	voltage_B -3600-6235j;
	voltage_C -3600+6235j;
	nominal_voltage 7200;
}

object node:173
{
	name R2-12-47-3_node_107;
	phases ABCN;
	voltage_A 7200+0.0j;
	voltage_B -3600-6235j;
	voltage_C -3600+6235j;
	nominal_voltage 7200;
}

object node:174
{
	name R2-12-47-3_node_108;
	phases ABCN;
	voltage_A 7200+0.0j;
	voltage_B -3600-6235j;
	voltage_C -3600+6235j;
	nominal_voltage 7200;
}

object node:175
{
	name R2-12-47-3_node_109;
	phases ABCN;
	voltage_A 7200+0.0j;
	voltage_B -3600-6235j;
	voltage_C -3600+6235j;
	nominal_voltage 7200;
}

object node:176
{
	name R2-12-47-3_node_110;
	phases ABCN;
	voltage_A 7200+0.0j;
	voltage_B -3600-6235j;
	voltage_C -3600+6235j;
	nominal_voltage 7200;
}

object node:177
{
	name R2-12-47-3_node_111;
	phases ABCN;
	voltage_A 7200+0.0j;
	voltage_B -3600-6235j;
	voltage_C -3600+6235j;
	nominal_voltage 7200;
}

object node:178
{
	name R2-12-47-3_node_112;
	phases ABCN;
	voltage_A 7200+0.0j;
	voltage_B -3600-6235j;
	voltage_C -3600+6235j;
	nominal_voltage 7200;
}

object node:179
{
	name R2-12-47-3_node_113;
	phases AN;
	voltage_A 7200+0.0j;
	nominal_voltage 7200;
}

object node:180
{
	name R2-12-47-3_node_114;
	phases ABCN;
	voltage_A 7200+0.0j;
	voltage_B -3600-6235j;
	voltage_C -3600+6235j;
	nominal_voltage 7200;
}

object node:181
{
	name R2-12-47-3_node_115;
	phases ABCN;
	voltage_A 7200+0.0j;
	voltage_B -3600-6235j;
	voltage_C -3600+6235j;
	nominal_voltage 7200;
}

object node:182
{
	name R2-12-47-3_node_116;
	phases ACN;
	voltage_A 7200+0.0j;
	voltage_C -3600+6235j;
	nominal_voltage 7200;
}

object node:183
{
	name R2-12-47-3_node_117;
	phases ACN;
	voltage_A 7200+0.0j;
	voltage_C -3600+6235j;
	nominal_voltage 7200;
}

object node:184
{
	name R2-12-47-3_node_118;
	phases ACN;
	voltage_A 7200+0.0j;
	voltage_C -3600+6235j;
	nominal_voltage 7200;
}

object node:185
{
	name R2-12-47-3_node_119;
	phases AN;
	voltage_A 7200+0.0j;
	nominal_voltage 7200;
}

object node:186
{
	name R2-12-47-3_node_120;
	phases AN;
	voltage_A 7200+0.0j;
	nominal_voltage 7200;
}

object node:187
{
	name R2-12-47-3_node_121;
	phases AN;
	voltage_A 7200+0.0j;
	nominal_voltage 7200;
}

object node:188
{
	name R2-12-47-3_node_122;
	phases ACN;
	voltage_A 7200+0.0j;
	voltage_C -3600+6235j;
	nominal_voltage 7200;
}

object node:189
{
	name R2-12-47-3_node_123;
	phases AN;
	voltage_A 7200+0.0j;
	nominal_voltage 7200;
}

object node:190
{
	name R2-12-47-3_node_124;
	phases AN;
	voltage_A 7200+0.0j;
	nominal_voltage 7200;
}

object node:191
{
	name R2-12-47-3_node_125;
	phases CN;
	voltage_C -3600+6235j;
	nominal_voltage 7200;
}

object node:192
{
	name R2-12-47-3_node_126;
	phases CN;
	voltage_C -3600+6235j;
	nominal_voltage 7200;
}

object node:193
{
	name R2-12-47-3_node_127;
	phases AN;
	voltage_A 7200+0.0j;
	nominal_voltage 7200;
}

object node:194
{
	name R2-12-47-3_node_128;
	phases CN;
	voltage_C -3600+6235j;
	nominal_voltage 7200;
}

object node:195
{
	name R2-12-47-3_node_129;
	phases AN;
	voltage_A 7200+0.0j;
	nominal_voltage 7200;
}

object node:196
{
	name R2-12-47-3_node_130;
	phases AN;
	voltage_A 7200+0.0j;
	nominal_voltage 7200;
}

object node:197
{
	name R2-12-47-3_node_131;
	phases AN;
	voltage_A 7200+0.0j;
	nominal_voltage 7200;
}

object node:198
{
	name R2-12-47-3_node_132;
	phases AN;
	voltage_A 7200+0.0j;
	nominal_voltage 7200;
}

object node:199
{
	name R2-12-47-3_node_133;
	phases CN;
	voltage_C -3600+6235j;
	nominal_voltage 7200;
}

object node:200
{
	name R2-12-47-3_node_134;
	phases AN;
	voltage_A 7200+0.0j;
	nominal_voltage 7200;
}

object node:201
{
	name R2-12-47-3_node_135;
	phases AN;
	voltage_A 7200+0.0j;
	nominal_voltage 7200;
}

object node:202
{
	name R2-12-47-3_node_136;
	phases AN;
	voltage_A 7200+0.0j;
	nominal_voltage 7200;
}

object node:203
{
	name R2-12-47-3_node_137;
	phases AN;
	voltage_A 7200+0.0j;
	nominal_voltage 7200;
}

object node:204
{
	name R2-12-47-3_node_138;
	phases AN;
	voltage_A 7200+0.0j;
	nominal_voltage 7200;
}

object node:205
{
	name R2-12-47-3_node_139;
	phases AN;
	voltage_A 7200+0.0j;
	nominal_voltage 7200;
}

object node:206
{
	name R2-12-47-3_node_140;
	phases AN;
	voltage_A 7200+0.0j;
	nominal_voltage 7200;
}

object node:207
{
	name R2-12-47-3_node_141;
	phases AN;
	voltage_A 7200+0.0j;
	nominal_voltage 7200;
}

object node:208
{
	name R2-12-47-3_node_142;
	phases ABCN;
	voltage_A 7200+0.0j;
	voltage_B -3600-6235j;
	voltage_C -3600+6235j;
	nominal_voltage 7200;
}

object node:209
{
	name R2-12-47-3_node_143;
	phases ABCN;
	voltage_A 7200+0.0j;
	voltage_B -3600-6235j;
	voltage_C -3600+6235j;
	nominal_voltage 7200;
}

object node:210
{
	name R2-12-47-3_node_144;
	phases BCN;
	voltage_B -3600-6235j;
	voltage_C -3600+6235j;
	nominal_voltage 7200;
}

object node:211
{
	name R2-12-47-3_node_145;
	phases ABCN;
	voltage_A 7200+0.0j;
	voltage_B -3600-6235j;
	voltage_C -3600+6235j;
	nominal_voltage 7200;
}

object node:212
{
	name R2-12-47-3_node_146;
	phases ABCN;
	voltage_A 7200+0.0j;
	voltage_B -3600-6235j;
	voltage_C -3600+6235j;
	nominal_voltage 7200;
}

object node:213
{
	name R2-12-47-3_node_147;
	phases BCN;
	voltage_B -3600-6235j;
	voltage_C -3600+6235j;
	nominal_voltage 7200;
}

object node:214
{
	name R2-12-47-3_node_148;
	phases ACN;
	voltage_A 7200+0.0j;
	voltage_C -3600+6235j;
	nominal_voltage 7200;
}

object node:215
{
	name R2-12-47-3_node_149;
	phases ABCN;
	voltage_A 7200+0.0j;
	voltage_B -3600-6235j;
	voltage_C -3600+6235j;
	nominal_voltage 7200;
}

object node:216
{
	name R2-12-47-3_node_150;
	phases AN;
	voltage_A 7200+0.0j;
	nominal_voltage 7200;
}

object node:217
{
	name R2-12-47-3_node_151;
	phases AN;
	voltage_A 7200+0.0j;
	nominal_voltage 7200;
}

object node:218
{
	name R2-12-47-3_node_152;
	phases CN;
	voltage_C -3600+6235j;
	nominal_voltage 7200;
}

object node:219
{
	name R2-12-47-3_node_153;
	phases ABCN;
	voltage_A 7200+0.0j;
	voltage_B -3600-6235j;
	voltage_C -3600+6235j;
	nominal_voltage 7200;
}

object node:220
{
	name R2-12-47-3_node_154;
	phases ABCN;
	voltage_A 7200+0.0j;
	voltage_B -3600-6235j;
	voltage_C -3600+6235j;
	nominal_voltage 7200;
}

object node:221
{
	name R2-12-47-3_node_155;
	phases CN;
	voltage_C -3600+6235j;
	nominal_voltage 7200;
}

object node:222
{
	name R2-12-47-3_node_156;
	phases CN;
	voltage_C -3600+6235j;
	nominal_voltage 7200;
}

object node:223
{
	name R2-12-47-3_node_157;
	phases ABCN;
	voltage_A 7200+0.0j;
	voltage_B -3600-6235j;
	voltage_C -3600+6235j;
	nominal_voltage 7200;
}

object node:224
{
	name R2-12-47-3_node_158;
	phases CN;
	voltage_C -3600+6235j;
	nominal_voltage 7200;
}

object node:225
{
	name R2-12-47-3_node_159;
	phases CN;
	voltage_C -3600+6235j;
	nominal_voltage 7200;
}

object node:226
{
	name R2-12-47-3_node_160;
	phases CN;
	voltage_C -3600+6235j;
	nominal_voltage 7200;
}

object node:227
{
	name R2-12-47-3_node_161;
	phases CN;
	voltage_C -3600+6235j;
	nominal_voltage 7200;
}

object node:228
{
	name R2-12-47-3_node_162;
	phases CN;
	voltage_C -3600+6235j;
	nominal_voltage 7200;
}

object node:229
{
	name R2-12-47-3_node_163;
	phases CN;
	voltage_C -3600+6235j;
	nominal_voltage 7200;
}

object node:230
{
	name R2-12-47-3_node_164;
	phases CN;
	voltage_C -3600+6235j;
	nominal_voltage 7200;
}

object node:231
{
	name R2-12-47-3_node_165;
	phases CN;
	voltage_C -3600+6235j;
	nominal_voltage 7200;
}

object node:232
{
	name R2-12-47-3_node_166;
	phases AN;
	voltage_A 7200+0.0j;
	nominal_voltage 7200;
}

object node:233
{
	name R2-12-47-3_node_167;
	phases AN;
	voltage_A 7200+0.0j;
	nominal_voltage 7200;
}

object node:234
{
	name R2-12-47-3_node_168;
	phases CN;
	voltage_C -3600+6235j;
	nominal_voltage 7200;
}

object node:235
{
	name R2-12-47-3_node_169;
	phases AN;
	voltage_A 7200+0.0j;
	nominal_voltage 7200;
}

object node:236
{
	name R2-12-47-3_node_170;
	phases CN;
	voltage_C -3600+6235j;
	nominal_voltage 7200;
}

object node:237
{
	name R2-12-47-3_node_171;
	phases CN;
	voltage_C -3600+6235j;
	nominal_voltage 7200;
}

object node:238
{
	name R2-12-47-3_node_172;
	phases CN;
	voltage_C -3600+6235j;
	nominal_voltage 7200;
}

object node:239
{
	name R2-12-47-3_node_173;
	phases CN;
	voltage_C -3600+6235j;
	nominal_voltage 7200;
}

object node:240
{
	name R2-12-47-3_node_174;
	phases CN;
	voltage_C -3600+6235j;
	nominal_voltage 7200;
}

object node:241
{
	name R2-12-47-3_node_175;
	phases CN;
	voltage_C -3600+6235j;
	nominal_voltage 7200;
}

object node:242
{
	name R2-12-47-3_node_176;
	phases CN;
	voltage_C -3600+6235j;
	nominal_voltage 7200;
}

object node:243
{
	name R2-12-47-3_node_177;
	phases CN;
	voltage_C -3600+6235j;
	nominal_voltage 7200;
}

object node:244
{
	name R2-12-47-3_node_178;
	phases CN;
	voltage_C -3600+6235j;
	nominal_voltage 7200;
}

object node:245
{
	name R2-12-47-3_node_179;
	phases ABCN;
	voltage_A 7200+0.0j;
	voltage_B -3600-6235j;
	voltage_C -3600+6235j;
	nominal_voltage 7200;
}

object node:246
{
	name R2-12-47-3_node_180;
	phases BN;
	voltage_B -3600-6235j;
	nominal_voltage 7200;
}

object node:247
{
	name R2-12-47-3_node_181;
	phases ABCN;
	voltage_A 7200+0.0j;
	voltage_B -3600-6235j;
	voltage_C -3600+6235j;
	nominal_voltage 7200;
}

object node:248
{
	name R2-12-47-3_node_182;
	phases BN;
	voltage_B -3600-6235j;
	nominal_voltage 7200;
}

object node:249
{
	name R2-12-47-3_node_183;
	phases BN;
	voltage_B -3600-6235j;
	nominal_voltage 7200;
}

object node:250
{
	name R2-12-47-3_node_184;
	phases BN;
	voltage_B -3600-6235j;
	nominal_voltage 7200;
}

object node:251
{
	name R2-12-47-3_node_185;
	phases BN;
	voltage_B -3600-6235j;
	nominal_voltage 7200;
}

object node:252
{
	name R2-12-47-3_node_186;
	phases BN;
	voltage_B -3600-6235j;
	nominal_voltage 7200;
}

object node:253
{
	name R2-12-47-3_node_187;
	phases AN;
	voltage_A 7200+0.0j;
	nominal_voltage 7200;
}

object node:254
{
	name R2-12-47-3_node_188;
	phases BN;
	voltage_B -3600-6235j;
	nominal_voltage 7200;
}

object node:255
{
	name R2-12-47-3_node_189;
	phases AN;
	voltage_A 7200+0.0j;
	nominal_voltage 7200;
}

object node:256
{
	name R2-12-47-3_node_190;
	phases BN;
	voltage_B -3600-6235j;
	nominal_voltage 7200;
}

object node:257
{
	name R2-12-47-3_node_191;
	phases AN;
	voltage_A 7200+0.0j;
	nominal_voltage 7200;
}

object node:258
{
	name R2-12-47-3_node_192;
	phases CN;
	voltage_C -3600+6235j;
	nominal_voltage 7200;
}

object node:259
{
	name R2-12-47-3_node_193;
	phases ABCN;
	voltage_A 7200+0.0j;
	voltage_B -3600-6235j;
	voltage_C -3600+6235j;
	nominal_voltage 7200;
}

object node:260
{
	name R2-12-47-3_node_194;
	phases ABCN;
	voltage_A 7200+0.0j;
	voltage_B -3600-6235j;
	voltage_C -3600+6235j;
	nominal_voltage 7200;
}

object node:261
{
	name R2-12-47-3_node_195;
	phases CN;
	voltage_C -3600+6235j;
	nominal_voltage 7200;
}

object node:262
{
	name R2-12-47-3_node_196;
	phases CN;
	voltage_C -3600+6235j;
	nominal_voltage 7200;
}

object node:263
{
	name R2-12-47-3_node_197;
	phases AN;
	voltage_A 7200+0.0j;
	nominal_voltage 7200;
}

object node:264
{
	name R2-12-47-3_node_198;
	phases CN;
	voltage_C -3600+6235j;
	nominal_voltage 7200;
}

object node:265
{
	name R2-12-47-3_node_199;
	phases CN;
	voltage_C -3600+6235j;
	nominal_voltage 7200;
}

object node:266
{
	name R2-12-47-3_node_200;
	phases CN;
	voltage_C -3600+6235j;
	nominal_voltage 7200;
}

object node:267
{
	name R2-12-47-3_node_201;
	phases CN;
	voltage_C -3600+6235j;
	nominal_voltage 7200;
}

object node:268
{
	name R2-12-47-3_node_202;
	phases CN;
	voltage_C -3600+6235j;
	nominal_voltage 7200;
}

object node:269
{
	name R2-12-47-3_node_203;
	phases ABCN;
	voltage_A 7200+0.0j;
	voltage_B -3600-6235j;
	voltage_C -3600+6235j;
	nominal_voltage 7200;
}

object node:270
{
	name R2-12-47-3_node_204;
	phases BN;
	voltage_B -3600-6235j;
	nominal_voltage 7200;
}

object node:271
{
	name R2-12-47-3_node_205;
	phases BN;
	voltage_B -3600-6235j;
	nominal_voltage 7200;
}

object node:272
{
	name R2-12-47-3_node_206;
	phases BN;
	voltage_B -3600-6235j;
	nominal_voltage 7200;
}

object node:273
{
	name R2-12-47-3_node_207;
	phases BN;
	voltage_B -3600-6235j;
	nominal_voltage 7200;
}

object node:274
{
	name R2-12-47-3_node_208;
	phases BN;
	voltage_B -3600-6235j;
	nominal_voltage 7200;
}

object node:275
{
	name R2-12-47-3_node_209;
	phases BN;
	voltage_B -3600-6235j;
	nominal_voltage 7200;
}

object node:276
{
	name R2-12-47-3_node_210;
	phases CN;
	voltage_C -3600+6235j;
	nominal_voltage 7200;
}

object node:277
{
	name R2-12-47-3_node_211;
	phases CN;
	voltage_C -3600+6235j;
	nominal_voltage 7200;
}

object node:278
{
	name R2-12-47-3_node_212;
	phases ABCN;
	voltage_A 7200+0.0j;
	voltage_B -3600-6235j;
	voltage_C -3600+6235j;
	nominal_voltage 7200;
}

object node:279
{
	name R2-12-47-3_node_213;
	phases ABCN;
	voltage_A 7200+0.0j;
	voltage_B -3600-6235j;
	voltage_C -3600+6235j;
	nominal_voltage 7200;
}

object node:280
{
	name R2-12-47-3_node_214;
	phases ABCN;
	voltage_A 7200+0.0j;
	voltage_B -3600-6235j;
	voltage_C -3600+6235j;
	nominal_voltage 7200;
}

object node:281
{
	name R2-12-47-3_node_215;
	phases ABCN;
	voltage_A 7200+0.0j;
	voltage_B -3600-6235j;
	voltage_C -3600+6235j;
	nominal_voltage 7200;
}

object node:282
{
	name R2-12-47-3_node_216;
	phases ABCN;
	voltage_A 7200+0.0j;
	voltage_B -3600-6235j;
	voltage_C -3600+6235j;
	nominal_voltage 7200;
}

object node:283
{
	name R2-12-47-3_node_217;
	phases ABCN;
	voltage_A 7200+0.0j;
	voltage_B -3600-6235j;
	voltage_C -3600+6235j;
	nominal_voltage 7200;
}

object node:284
{
	name R2-12-47-3_node_218;
	phases CN;
	voltage_C -3600+6235j;
	nominal_voltage 7200;
}

object node:285
{
	name R2-12-47-3_node_219;
	phases CN;
	voltage_C -3600+6235j;
	nominal_voltage 7200;
}

object node:286
{
	name R2-12-47-3_node_220;
	phases CN;
	voltage_C -3600+6235j;
	nominal_voltage 7200;
}

object node:287
{
	name R2-12-47-3_node_221;
	phases ABCN;
	voltage_A 7200+0.0j;
	voltage_B -3600-6235j;
	voltage_C -3600+6235j;
	nominal_voltage 7200;
}

object node:288
{
	name R2-12-47-3_node_222;
	phases CN;
	voltage_C -3600+6235j;
	nominal_voltage 7200;
}

object node:289
{
	name R2-12-47-3_node_223;
	phases CN;
	voltage_C -3600+6235j;
	nominal_voltage 7200;
}

object node:290
{
	name R2-12-47-3_node_224;
	phases AN;
	voltage_A 7200+0.0j;
	nominal_voltage 7200;
}

object node:291
{
	name R2-12-47-3_node_225;
	phases AN;
	voltage_A 7200+0.0j;
	nominal_voltage 7200;
}

object node:292
{
	name R2-12-47-3_node_226;
	phases CN;
	voltage_C -3600+6235j;
	nominal_voltage 7200;
}

object node:293
{
	name R2-12-47-3_node_227;
	phases CN;
	voltage_C -3600+6235j;
	nominal_voltage 7200;
}

object node:294
{
	name R2-12-47-3_node_228;
	phases ABCN;
	voltage_A 7200+0.0j;
	voltage_B -3600-6235j;
	voltage_C -3600+6235j;
	nominal_voltage 7200;
}

object node:295
{
	name R2-12-47-3_node_229;
	phases ABCN;
	voltage_A 7200+0.0j;
	voltage_B -3600-6235j;
	voltage_C -3600+6235j;
	nominal_voltage 7200;
}

object node:296
{
	name R2-12-47-3_node_230;
	phases ABCN;
	voltage_A 7200+0.0j;
	voltage_B -3600-6235j;
	voltage_C -3600+6235j;
	nominal_voltage 7200;
}

object node:297
{
	name R2-12-47-3_node_231;
	phases ABCN;
	voltage_A 7200+0.0j;
	voltage_B -3600-6235j;
	voltage_C -3600+6235j;
	nominal_voltage 7200;
}

object node:298
{
	name R2-12-47-3_node_232;
	phases ABCN;
	voltage_A 7200+0.0j;
	voltage_B -3600-6235j;
	voltage_C -3600+6235j;
	nominal_voltage 7200;
}

object node:299
{
	name R2-12-47-3_node_233;
	phases ABCN;
	voltage_A 7200+0.0j;
	voltage_B -3600-6235j;
	voltage_C -3600+6235j;
	nominal_voltage 7200;
}

object node:300
{
	name R2-12-47-3_node_234;
	phases ABCN;
	voltage_A 7200+0.0j;
	voltage_B -3600-6235j;
	voltage_C -3600+6235j;
	nominal_voltage 7200;
}

object node:301
{
	name R2-12-47-3_node_235;
	phases ACN;
	voltage_A 7200+0.0j;
	voltage_C -3600+6235j;
	nominal_voltage 7200;
}

object node:302
{
	name R2-12-47-3_node_236;
	phases ACN;
	voltage_A 7200+0.0j;
	voltage_C -3600+6235j;
	nominal_voltage 7200;
}

object node:303
{
	name R2-12-47-3_node_237;
	phases ABCN;
	voltage_A 7200+0.0j;
	voltage_B -3600-6235j;
	voltage_C -3600+6235j;
	nominal_voltage 7200;
}

object node:304
{
	name R2-12-47-3_node_238;
	phases ABCN;
	voltage_A 7200+0.0j;
	voltage_B -3600-6235j;
	voltage_C -3600+6235j;
	nominal_voltage 7200;
}

object node:305
{
	name R2-12-47-3_node_239;
	phases ABCN;
	voltage_A 7200+0.0j;
	voltage_B -3600-6235j;
	voltage_C -3600+6235j;
	nominal_voltage 7200;
}

object node:306
{
	name R2-12-47-3_node_240;
	phases ABCN;
	voltage_A 7200+0.0j;
	voltage_B -3600-6235j;
	voltage_C -3600+6235j;
	nominal_voltage 7200;
}

object node:307
{
	name R2-12-47-3_node_241;
	phases CN;
	voltage_C -3600+6235j;
	nominal_voltage 7200;
}

object node:308
{
	name R2-12-47-3_node_242;
	phases CN;
	voltage_C -3600+6235j;
	nominal_voltage 7200;
}

object node:309
{
	name R2-12-47-3_node_243;
	phases ABCN;
	voltage_A 7200+0.0j;
	voltage_B -3600-6235j;
	voltage_C -3600+6235j;
	nominal_voltage 7200;
}

object node:310
{
	name R2-12-47-3_node_244;
	phases BN;
	voltage_B -3600-6235j;
	nominal_voltage 7200;
}

object node:311
{
	name R2-12-47-3_node_245;
	phases BN;
	voltage_B -3600-6235j;
	nominal_voltage 7200;
}

object node:312
{
	name R2-12-47-3_node_246;
	phases BN;
	voltage_B -3600-6235j;
	nominal_voltage 7200;
}

object node:313
{
	name R2-12-47-3_node_247;
	phases ABCN;
	voltage_A 7200+0.0j;
	voltage_B -3600-6235j;
	voltage_C -3600+6235j;
	nominal_voltage 7200;
}

object node:314
{
	name R2-12-47-3_node_248;
	phases CN;
	voltage_C -3600+6235j;
	nominal_voltage 7200;
}

object node:315
{
	name R2-12-47-3_node_249;
	phases CN;
	voltage_C -3600+6235j;
	nominal_voltage 7200;
}

object node:316
{
	name R2-12-47-3_node_250;
	phases CN;
	voltage_C -3600+6235j;
	nominal_voltage 7200;
}

object node:317
{
	name R2-12-47-3_node_251;
	phases CN;
	voltage_C -3600+6235j;
	nominal_voltage 7200;
}

object node:318
{
	name R2-12-47-3_node_252;
	phases CN;
	voltage_C -3600+6235j;
	nominal_voltage 7200;
}

object node:319
{
	name R2-12-47-3_node_253;
	phases CN;
	voltage_C -3600+6235j;
	nominal_voltage 7200;
}

object node:320
{
	name R2-12-47-3_node_254;
	phases CN;
	voltage_C -3600+6235j;
	nominal_voltage 7200;
}

object node:321
{
	name R2-12-47-3_node_255;
	phases CN;
	voltage_C -3600+6235j;
	nominal_voltage 7200;
}

object node:322
{
	name R2-12-47-3_node_256;
	phases CN;
	voltage_C -3600+6235j;
	nominal_voltage 7200;
}

object node:323
{
	name R2-12-47-3_node_257;
	phases CN;
	voltage_C -3600+6235j;
	nominal_voltage 7200;
}

object node:324
{
	name R2-12-47-3_node_258;
	phases CN;
	voltage_C -3600+6235j;
	nominal_voltage 7200;
}

object node:325
{
	name R2-12-47-3_node_259;
	phases AN;
	voltage_A 7200+0.0j;
	nominal_voltage 7200;
}

object node:326
{
	name R2-12-47-3_node_260;
	phases ABCN;
	voltage_A 7200+0.0j;
	voltage_B -3600-6235j;
	voltage_C -3600+6235j;
	nominal_voltage 7200;
}

object node:327
{
	name R2-12-47-3_node_261;
	phases AN;
	voltage_A 7200+0.0j;
	nominal_voltage 7200;
}

object node:328
{
	name R2-12-47-3_node_262;
	phases ABCN;
	voltage_A 7200+0.0j;
	voltage_B -3600-6235j;
	voltage_C -3600+6235j;
	nominal_voltage 7200;
}

object node:329
{
	name R2-12-47-3_node_263;
	phases ABCN;
	voltage_A 7200+0.0j;
	voltage_B -3600-6235j;
	voltage_C -3600+6235j;
	nominal_voltage 7200;
}

object node:330
{
	name R2-12-47-3_node_264;
	phases ABCN;
	voltage_A 7200+0.0j;
	voltage_B -3600-6235j;
	voltage_C -3600+6235j;
	nominal_voltage 7200;
}

object node:331
{
	name R2-12-47-3_node_265;
	phases ABCN;
	voltage_A 7200+0.0j;
	voltage_B -3600-6235j;
	voltage_C -3600+6235j;
	nominal_voltage 7200;
}

object node:332
{
	name R2-12-47-3_node_266;
	phases ABCN;
	voltage_A 7200+0.0j;
	voltage_B -3600-6235j;
	voltage_C -3600+6235j;
	nominal_voltage 7200;
}

object node:333
{
	name R2-12-47-3_node_267;
	phases ABCN;
	voltage_A 7200+0.0j;
	voltage_B -3600-6235j;
	voltage_C -3600+6235j;
	nominal_voltage 7200;
}

object node:334
{
	name R2-12-47-3_node_268;
	phases BN;
	voltage_B -3600-6235j;
	nominal_voltage 7200;
}

object node:335
{
	name R2-12-47-3_node_269;
	phases BN;
	voltage_B -3600-6235j;
	nominal_voltage 7200;
}

object node:336
{
	name R2-12-47-3_node_270;
	phases BN;
	voltage_B -3600-6235j;
	nominal_voltage 7200;
}

object node:337
{
	name R2-12-47-3_node_271;
	phases BN;
	voltage_B -3600-6235j;
	nominal_voltage 7200;
}

object node:338
{
	name R2-12-47-3_node_272;
	phases ABCN;
	voltage_A 7200+0.0j;
	voltage_B -3600-6235j;
	voltage_C -3600+6235j;
	nominal_voltage 7200;
}

object node:339
{
	name R2-12-47-3_node_273;
	phases ABCN;
	voltage_A 7200+0.0j;
	voltage_B -3600-6235j;
	voltage_C -3600+6235j;
	nominal_voltage 7200;
}

object node:340
{
	name R2-12-47-3_node_274;
	phases AN;
	voltage_A 7200+0.0j;
	nominal_voltage 7200;
}

object node:341
{
	name R2-12-47-3_node_275;
	phases BN;
	voltage_B -3600-6235j;
	nominal_voltage 7200;
}

object node:342
{
	name R2-12-47-3_node_276;
	phases BN;
	voltage_B -3600-6235j;
	nominal_voltage 7200;
}

object node:343
{
	name R2-12-47-3_node_277;
	phases BN;
	voltage_B -3600-6235j;
	nominal_voltage 7200;
}

object node:344
{
	name R2-12-47-3_node_278;
	phases BN;
	voltage_B -3600-6235j;
	nominal_voltage 7200;
}

object node:345
{
	name R2-12-47-3_node_279;
	phases BN;
	voltage_B -3600-6235j;
	nominal_voltage 7200;
}

object node:346
{
	name R2-12-47-3_node_280;
	phases BN;
	voltage_B -3600-6235j;
	nominal_voltage 7200;
}

object node:347
{
	name R2-12-47-3_node_281;
	phases ABCN;
	voltage_A 7200+0.0j;
	voltage_B -3600-6235j;
	voltage_C -3600+6235j;
	nominal_voltage 7200;
}

object node:348
{
	name R2-12-47-3_node_282;
	phases CN;
	voltage_C -3600+6235j;
	nominal_voltage 7200;
}

object node:349
{
	name R2-12-47-3_node_283;
	phases CN;
	voltage_C -3600+6235j;
	nominal_voltage 7200;
}

object node:350
{
	name R2-12-47-3_node_284;
	phases BN;
	voltage_B -3600-6235j;
	nominal_voltage 7200;
}

object node:351
{
	name R2-12-47-3_node_285;
	phases BN;
	voltage_B -3600-6235j;
	nominal_voltage 7200;
}

object node:352
{
	name R2-12-47-3_node_286;
	phases BN;
	voltage_B -3600-6235j;
	nominal_voltage 7200;
}

object node:353
{
	name R2-12-47-3_node_287;
	phases BN;
	voltage_B -3600-6235j;
	nominal_voltage 7200;
}

object node:354
{
	name R2-12-47-3_node_288;
	phases ABCN;
	voltage_A 7200+0.0j;
	voltage_B -3600-6235j;
	voltage_C -3600+6235j;
	nominal_voltage 7200;
}

object node:355
{
	name R2-12-47-3_node_289;
	phases ABCN;
	voltage_A 7200+0.0j;
	voltage_B -3600-6235j;
	voltage_C -3600+6235j;
	nominal_voltage 7200;
}

object node:356
{
	name R2-12-47-3_node_290;
	phases ABCN;
	voltage_A 7200+0.0j;
	voltage_B -3600-6235j;
	voltage_C -3600+6235j;
	nominal_voltage 7200;
}

object node:357
{
	name R2-12-47-3_node_291;
	phases ABCN;
	voltage_A 7200+0.0j;
	voltage_B -3600-6235j;
	voltage_C -3600+6235j;
	nominal_voltage 7200;
}

object node:358
{
	name R2-12-47-3_node_292;
	phases ABCN;
	voltage_A 7200+0.0j;
	voltage_B -3600-6235j;
	voltage_C -3600+6235j;
	nominal_voltage 7200;
}

object node:359
{
	name R2-12-47-3_node_293;
	phases ABCN;
	voltage_A 7200+0.0j;
	voltage_B -3600-6235j;
	voltage_C -3600+6235j;
	nominal_voltage 7200;
}

object node:360
{
	name R2-12-47-3_node_294;
	phases ABCN;
	voltage_A 7200+0.0j;
	voltage_B -3600-6235j;
	voltage_C -3600+6235j;
	nominal_voltage 7200;
}

object node:361
{
	name R2-12-47-3_node_295;
	phases ABCN;
	voltage_A 7200+0.0j;
	voltage_B -3600-6235j;
	voltage_C -3600+6235j;
	nominal_voltage 7200;
}

object node:362
{
	name R2-12-47-3_node_296;
	phases ABCN;
	voltage_A 7200+0.0j;
	voltage_B -3600-6235j;
	voltage_C -3600+6235j;
	nominal_voltage 7200;
}

object node:363
{
	name R2-12-47-3_node_297;
	phases ABCN;
	voltage_A 7200+0.0j;
	voltage_B -3600-6235j;
	voltage_C -3600+6235j;
	nominal_voltage 7200;
}

object node:364
{
	name R2-12-47-3_node_298;
	phases ABCN;
	voltage_A 7200+0.0j;
	voltage_B -3600-6235j;
	voltage_C -3600+6235j;
	nominal_voltage 7200;
}

object node:365
{
	name R2-12-47-3_node_299;
	phases ABCN;
	voltage_A 7200+0.0j;
	voltage_B -3600-6235j;
	voltage_C -3600+6235j;
	nominal_voltage 7200;
}

object node:366
{
	name R2-12-47-3_node_300;
	phases ABCN;
	voltage_A 7200+0.0j;
	voltage_B -3600-6235j;
	voltage_C -3600+6235j;
	nominal_voltage 7200;
}

object node:367
{
	name R2-12-47-3_node_301;
	phases BN;
	voltage_B -3600-6235j;
	nominal_voltage 7200;
}

object node:368
{
	name R2-12-47-3_node_302;
	phases BN;
	voltage_B -3600-6235j;
	nominal_voltage 7200;
}

object node:369
{
	name R2-12-47-3_node_303;
	phases BN;
	voltage_B -3600-6235j;
	nominal_voltage 7200;
}

object node:370
{
	name R2-12-47-3_node_304;
	phases ABCN;
	voltage_A 7200+0.0j;
	voltage_B -3600-6235j;
	voltage_C -3600+6235j;
	nominal_voltage 7200;
}

object node:371
{
	name R2-12-47-3_node_305;
	phases ABCN;
	voltage_A 7200+0.0j;
	voltage_B -3600-6235j;
	voltage_C -3600+6235j;
	nominal_voltage 7200;
}

object node:372
{
	name R2-12-47-3_node_306;
	phases ABCN;
	voltage_A 7200+0.0j;
	voltage_B -3600-6235j;
	voltage_C -3600+6235j;
	nominal_voltage 7200;
}

object node:373
{
	name R2-12-47-3_node_307;
	phases CN;
	voltage_C -3600+6235j;
	nominal_voltage 7200;
}

object node:374
{
	name R2-12-47-3_node_308;
	phases ABCN;
	voltage_A 7200+0.0j;
	voltage_B -3600-6235j;
	voltage_C -3600+6235j;
	nominal_voltage 7200;
}

object node:375
{
	name R2-12-47-3_node_309;
	phases CN;
	voltage_C -3600+6235j;
	nominal_voltage 7200;
}

object node:376
{
	name R2-12-47-3_node_310;
	phases CN;
	voltage_C -3600+6235j;
	nominal_voltage 7200;
}

object node:377
{
	name R2-12-47-3_node_311;
	phases CN;
	voltage_C -3600+6235j;
	nominal_voltage 7200;
}

object node:378
{
	name R2-12-47-3_node_312;
	phases CN;
	voltage_C -3600+6235j;
	nominal_voltage 7200;
}

object node:379
{
	name R2-12-47-3_node_313;
	phases CN;
	voltage_C -3600+6235j;
	nominal_voltage 7200;
}

object node:380
{
	name R2-12-47-3_node_314;
	phases CN;
	voltage_C -3600+6235j;
	nominal_voltage 7200;
}

object node:381
{
	name R2-12-47-3_node_315;
	phases CN;
	voltage_C -3600+6235j;
	nominal_voltage 7200;
}

object node:382
{
	name R2-12-47-3_node_316;
	phases CN;
	voltage_C -3600+6235j;
	nominal_voltage 7200;
}

object node:383
{
	name R2-12-47-3_node_317;
	phases CN;
	voltage_C -3600+6235j;
	nominal_voltage 7200;
}

object node:384
{
	name R2-12-47-3_node_318;
	phases CN;
	voltage_C -3600+6235j;
	nominal_voltage 7200;
}

object node:385
{
...